sol/case14.m
function mpc = case14
%CASE14

%% MATPOWER Case Format : Version 2
mpc.version = '2';

%%-----  Power Flow Data  -----%%
%% system MVA base
mpc.baseMVA = 100;

%% bus data
%	bus_i	type	Pd	Qd	Gs	Bs	area	Vm	Va	baseKV	zone	Vmax	Vmin	lam_P	lam_Q	mu_Vmax	mu_Vmin
mpc.bus = [
	1	3	0	0	0	0	1	1.05999987	0	0	1	1.06	0.94	36.7238	-0.0939	583.7799	0.0000;
	2	2	21.7	12.7	0	0	1	1.04075277	-4.02231518	0	1	1.06	0.94	38.3596	0.0000	0.0000	0.0000;
	3	2	94.2	19	0	0	1	1.01562475	-9.92592311	0	1	1.06	0.94	40.5749	0.0000	0.0000	0.0000;
	4	1	47.8	-3.9	0	0	1	1.01446039	-8.66488501	0	1	1.06	0.94	40.1902	0.1198	0.0000	0.0000;
	5	1	7.6	1.6	0	0	1	1.01636215	-7.42843361	0	1	1.06	0.94	39.6608	0.2076	0.0000	0.0000;
	6	2	11.2	7.5	0	0	1	1.05999861	-12.6892288	0	1	1.06	0.94	39.7337	0.0000	55.1836	0.0000;
	7	1	0	0	0	0	1	1.04634615	-11.1878925	0	1	1.06	0.94	40.1715	0.1196	0.0000	0.0000;
	8	2	0	0	0	0	1	1.05999891	-10.4148598	0	1	1.06	0.94	40.1699	-0.0000	71.0690	0.0000;
	9	1	29.5	16.6	0	19	1	1.04369825	-12.9971661	0	1	1.06	0.94	40.1662	0.1960	0.0000	0.0000;
	10	1	9	5.8	0	0	1	1.03913578	-13.2329067	0	1	1.06	0.94	40.3178	0.3088	0.0000	0.0000;
	11	1	3.5	1.8	0	0	1	1.04600843	-13.0909603	0	1	1.06	0.94	40.1554	0.2281	0.0000	0.0000;
	12	1	6.1	1.6	0	0	1	1.04481911	-13.5327204	0	1	1.06	0.94	40.3791	0.2123	0.0000	0.0000;
	13	1	13.5	5.8	0	0	1	1.0399476	-13.5825717	0	1	1.06	0.94	40.5755	0.3535	0.0000	0.0000;
	14	1	14.9	5	0	0	1	1.02388763	-14.2741105	0	1	1.06	0.94	41.1975	0.5710	0.0000	0.0000;
];

%% generator data
%	bus	Pg	Qg	Qmax	Qmin	Vg	mBase	status	Pmax	Pmin	Pc1	Pc2	Qc1min	Qc1max	Qc2min	Qc2max	ramp_agc	ramp_10	ramp_30	ramp_q	apf	mu_Pmax	mu_Pmin	mu_Qmax	mu_Qmin
mpc.gen = [
	1	194.330168	0.000832407479	10	0	1.05999987	100	1	332.4	0	0	0	0	0	0	0	0	0	0	0	0	0.0000	0.0000	0.0000	0.0939;
	2	36.7191622	23.6850383	50	-40	1.04075277	100	1	140	0	0	0	0	0	0	0	0	0	0	0	0	0.0000	0.0000	0.0000	0.0000;
	3	28.7426233	24.126861	40	0	1.01562475	100	1	100	0	0	0	0	0	0	0	0	0	0	0	0	0.0000	0.0000	0.0000	0.0000;
	6	0.000316155959	11.5454666	24	-6	1.05999861	100	1	100	0	0	0	0	0	0	0	0	0	0	0	0	0.0000	0.2663	0.0000	0.0000;
	8	8.49493812	8.27298531	24	-6	1.05999891	100	1	100	0	0	0	0	0	0	0	0	0	0	0	0	0.0000	0.0000	0.0000	0.0000;
];

%% branch data
%	fbus	tbus	r	x	b	rateA	rateB	rateC	ratio	angle	status	angmin	angmax	Pf	Qf	Pt	Qt	mu_Sf	mu_St	mu_angmin	mu_angmax
mpc.branch = [
	1	2	0.01938	0.05917	0.0528	0	0	0	0	0	1	-360	360	129.6692	-6.3643	-126.7671	9.3990	0.0000	0.0000	0.0000	0.0000;
	1	5	0.05403	0.22304	0.0492	0	0	0	0	0	1	-360	360	64.6610	6.3651	-62.6104	-3.2053	0.0000	0.0000	0.0000	0.0000;
	2	3	0.04699	0.19797	0.0438	0	0	0	0	0	1	-360	360	55.5927	0.4743	-54.2485	0.5580	0.0000	0.0000	0.0000	0.0000;
	2	4	0.05811	0.17632	0.034	0	0	0	0	0	1	-360	360	48.9157	-0.4785	-47.6310	0.7856	0.0000	0.0000	0.0000	0.0000;
	2	5	0.05695	0.17388	0.0346	0	0	0	0	0	1	-360	360	37.2779	1.5903	-36.5409	-3.0012	0.0000	0.0000	0.0000	0.0000;
	3	4	0.06701	0.17103	0.0128	0	0	0	0	0	1	-360	360	-11.2089	4.5689	11.3083	-5.6340	0.0000	0.0000	0.0000	0.0000;
	4	5	0.01335	0.04211	0	0	0	0	0	0	1	-360	360	-49.1650	11.5753	49.4959	-10.5314	0.0000	0.0000	0.0000	0.0000;
	4	7	0	0.20912	0	0	0	0	0.978	0	1	-360	360	22.8471	-3.9936	-22.8471	5.0391	0.0000	0.0000	0.0000	0.0000;
	4	9	0	0.55618	0	0	0	0	0.969	0	1	-360	360	14.8406	1.1668	-14.8406	-0.0423	0.0000	0.0000	0.0000	0.0000;
	5	6	0	0.25202	0	0	0	0	0.932	0	1	-360	360	42.0553	15.1379	-42.0553	-10.9041	0.0000	0.0000	0.0000	0.0000;
	6	11	0.09498	0.1989	0	0	0	0	0	0	1	-360	360	6.0873	4.5626	-6.0384	-4.4602	0.0000	0.0000	0.0000	0.0000;
	6	12	0.12291	0.25581	0	0	0	0	0	0	1	-360	360	7.6517	2.6604	-7.5799	-2.5110	0.0000	0.0000	0.0000	0.0000;
	6	13	0.06615	0.13027	0	0	0	0	0	0	1	-360	360	17.1167	7.7265	-16.9090	-7.3176	0.0000	0.0000	0.0000	0.0000;
	7	8	0	0.17615	0	0	0	0	0	0	1	-360	360	-8.4949	-8.0526	8.4949	8.2730	0.0000	0.0000	0.0000	0.0000;
	7	9	0	0.11001	0	0	0	0	0	0	1	-360	360	31.3421	3.0134	-31.3421	-2.0172	0.0000	0.0000	0.0000	0.0000;
	9	10	0.03181	0.0845	0	0	0	0	0	0	1	-360	360	6.4870	3.2042	-6.4717	-3.1635	0.0000	0.0000	0.0000	0.0000;
	9	14	0.12711	0.27038	0	0	0	0	0	0	1	-360	360	10.1956	2.9522	-10.0642	-2.6725	0.0000	0.0000	0.0000	0.0000;
	10	11	0.08205	0.19207	0	0	0	0	0	0	1	-360	360	-2.5283	-2.6365	2.5384	2.6602	0.0000	0.0000	0.0000	0.0000;
	12	13	0.22092	0.19988	0	0	0	0	0	0	1	-360	360	1.4799	0.9110	-1.4738	-0.9055	0.0000	0.0000	0.0000	0.0000;
	13	14	0.17093	0.34802	0	0	0	0	0	0	1	-360	360	4.8828	2.4231	-4.8358	-2.3275	0.0000	0.0000	0.0000	0.0000;
];

%%-----  OPF Data  -----%%
%% generator cost data
%	1	startup	shutdown	n	x1	y1	...	xn	yn
%	2	startup	shutdown	n	c(n-1)	...	c0
mpc.gencost = [
	2	0	0	3	0.0430292599	20	0;
	2	0	0	3	0.25	20	0;
	2	0	0	3	0.01	40	0;
	2	0	0	3	0.01	40	0;
	2	0	0	3	0.01	40	0;
];

%% bus names
mpc.bus_name = {
	'Bus 1     HV';
	'Bus 2     HV';
	'Bus 3     HV';
	'Bus 4     HV';
	'Bus 5     HV';
	'Bus 6     LV';
	'Bus 7     ZV';
	'Bus 8     TV';
	'Bus 9     LV';
	'Bus 10    LV';
	'Bus 11    LV';
	'Bus 12    LV';
	'Bus 13    LV';
	'Bus 14    LV';
};
